7
The energy is -16.505008643557534
Ne 0.04032558275234309 0.913810835523604 1.3364832329442444
Ne 1.0933723487501863 0.5803148761112102 1.493984421759803
Ne 1.6226997803800158 0.5560990983064639 0.5140500690488102
Ne 0.5432000551505111 0.2496664453551794 0.5816362301435561
Ne 1.7853830757141729 1.4136923168636226 1.2223305493688073
Ne 0.8268749418613319 1.3247949653763995 0.6621326858950655
Ne 0.8092809551608532 1.6298491221160665 1.7360146356120036
