7
The energy is 2.1910350355111388
Ne 0.9956746402077667 2.126730085558182 -0.14252592080933207
Ne 0.556918668293869 2.352285791146817 1.6762780182681685
Ne 1.972694334093138 1.299251715971975 1.446714846475083
Ne -0.753461478705505 1.7778018846041719 0.5954686556988672
Ne -0.04821640820729524 0.47417043141269766 -0.414378149120424
Ne 0.31939407513894597 0.4120941978684739 1.4373222172272249
Ne 1.6930751673229338 0.39422348092140114 -0.05004698322486972
