7
The energy is 0.6806038986774715
Ne 0.6441833377941943 0.9899776203116911 0.6630710928559298
Ne 1.3532595412285313 1.3856049224226428 0.7136575981053338
Ne 0.5816755026715854 0.5984586204487867 1.4008764480009819
Ne 1.4246304536733572 0.5278033505983385 1.083969549119926
Ne 1.1732294554420288 0.9306361042664559 1.882675924819965
Ne 1.5963465923612945 1.4473457582871556 1.4564936424476922
Ne 0.6486889311388953 1.537795823629033 1.3827643645380663
